#---------------------------------------------------------------------------
#  CTI file converted from solution object
#---------------------------------------------------------------------------

units(length = "cm", time = "s", quantity = "mol", act_energy = "cal/mol")

ideal_gas(name = "reduced_99", 
     elements = "N H O C Ar He", 
     species = """ N2 H O2 O OH H2 H2O HO2 H2O2 CO CO2 HCO T-CH2 CH3 CH2O
                   CH2CO C2H2 S-CH2 CH3OH CH2OH CH3O AR HE
                   CH4 CH3O2 C2H3 C2H4 C2H5 CH2CHO
                   CH3CHO C2H5O N-C3H7 C2H6 C3H6 C3H3
                   A-C3H4 S-C3H5 C2H3CHO A-C3H5 C3H5O
                   C4H6 I-C4H5 C5H11 P-C4H9 C7H15
                   P-C4H8 C5H10 C7H14 C7H15O C3H7CHO
                   C4H7 C5H9 C4H7O N-C3H7O C5H81-3
                   C7H13 C6H13 OCHO O2CHO HO2CHO
                   C2H5CHO C3H6OOH1-2 N-C3H7O2 C6H12-1
                   C4H9CO N-C4H9CHO C5H10OOH1-3
                   C5H11O2-1 NC5KET13 C5H10OOH1-3O2
                   C6H13O-1 NC12H26 C5H11CO N-C5H11CHO
                   C6H13CO N-C6H13CHO C8H17 C8H17O2-1
                   C7H15CO C8OOH1-3 C8OOH1-3O2 C8KET1-3
                   C9H17 C9H18-1 C9H19 C8H17CO C10H20-1
                   C9H19CO C12H23 C12H24 C12H25
                   C12H25O2 C12O-R4 C12O-R5 C12OOH-T6
                   C12OOH-T7 C12OOH-T5 C12OOHO2-T6
                   C12OOHO2-T7 C12KET-T6 C12KET-T7 """, 
     reactions = "all", 
     initial_state = state(temperature = 300.0, pressure = 101324.99999999994)   )

#---------------------------------------------------------------------------
#  Species data
#---------------------------------------------------------------------------

species(name='AR',
        atoms='Ar:1',
        thermo=(NASA([300.00, 1000.00],
                     [ 2.50000000E+00, -1.56525602E-16,  4.56943616E-19,
                      -5.17814989E-22,  1.99020834E-25, -7.45375000E+02,
                       4.36600100E+00]),
                NASA([1000.00, 5000.00],
                     [ 2.50000000E+00,  0.00000000E+00,  0.00000000E+00,
                       0.00000000E+00,  0.00000000E+00, -7.45375000E+02,
                       4.36600100E+00])),
        transport=gas_transport(geom='atom',
                                diam=3.33,
                                well_depth=136.5),
        note='120186')

species(name='HE',
        atoms='He:1',
        thermo=(NASA([300.00, 1000.00],
                     [ 2.50000000E+00, -1.56525602E-16,  4.56943616E-19,
                      -5.17814989E-22,  1.99020834E-25, -7.45375000E+02,
                       9.15348800E-01]),
                NASA([1000.00, 5000.00],
                     [ 2.50000000E+00,  0.00000000E+00,  0.00000000E+00,
                       0.00000000E+00,  0.00000000E+00, -7.45375000E+02,
                       9.15348800E-01])),
        transport=gas_transport(geom='atom',
                                diam=2.576,
                                well_depth=10.2),
        note='120186')
		
species(name = "N2",
    atoms = "N:2", 
    thermo = (
       NASA(   [300.0, 1000.0], [3.298647590e+00, 1.408462820e-03,
                -3.963803470e-06, 5.642137320e-09,
                -2.445086310e-12,
                -1.020897120e+03, 3.950493940e+00]  ),
       NASA(   [1000.0, 5000.0], [2.926640000e+00, 1.487977000e-03,
                -5.684761000e-07, 1.009704000e-10,
                -6.753351000e-15,
                -9.227972710e+02, 5.980525860e+00]  )
                ),
    transport = gas_transport(
                geom = "linear",
                diam = 3.621, 
                well_depth = 97.53, 
                polar = 1.76, 
                rot_relax = 4.0)
       )

species(name = "H",
    atoms = "H:1", 
    thermo = (
       NASA(   [300.0, 1000.0], [2.500000000e+00, -1.565256020e-16,
                4.569436160e-19, -5.178149890e-22,
                1.990208340e-25, 2.547163000e+04,
                -4.601176000e-01]  ),
       NASA(   [1000.0, 5000.0], [2.500000000e+00, 0.000000000e+00,
                0.000000000e+00, 0.000000000e+00,
                0.000000000e+00, 2.547163000e+04,
                -4.601176000e-01]  )
                ),
    transport = gas_transport(
                geom = "atom",
                diam = 2.05, 
                well_depth = 145.0, 
                polar = 0.0, 
                rot_relax = 0.0)
       )

species(name = "O2",
    atoms = "O:2", 
    thermo = (
       NASA(   [300.0, 1000.0], [3.212920960e+00, 1.127600430e-03,
                -5.759153620e-07, 1.314201130e-09,
                -8.769772740e-13,
                -1.005247530e+03, 6.034800320e+00]  ),
       NASA(   [1000.0, 5000.0], [3.697578000e+00, 6.135197000e-04,
                -1.258842000e-07, 1.775281000e-11,
                -1.136435000e-15,
                -1.233930690e+03, 3.189162450e+00]  )
                ),
    transport = gas_transport(
                geom = "linear",
                diam = 3.458, 
                well_depth = 107.4, 
                polar = 1.6, 
                rot_relax = 3.8)
       )

species(name = "O",
    atoms = "O:1", 
    thermo = (
       NASA(   [300.0, 1000.0], [2.975810490e+00, -1.866513550e-03,
                3.039106990e-06, -2.297981690e-09,
                6.650985980e-13, 2.914481200e+04,
                2.842797480e+00]  ),
       NASA(   [1000.0, 5000.0], [2.542060000e+00, -2.755062000e-05,
                -3.102803000e-09, 4.551067000e-12,
                -4.368052000e-16, 2.923062480e+04,
                4.920054600e+00]  )
                ),
    transport = gas_transport(
                geom = "atom",
                diam = 2.7500000000000004, 
                well_depth = 80.0, 
                polar = 0.0, 
                rot_relax = 0.0)
       )

species(name = "OH",
    atoms = "H:1, O:1", 
    thermo = (
       NASA(   [200.0, 1000.0], [4.090645170e+00, -2.932964530e-03,
                5.662944090e-06, -4.748790040e-09,
                1.619505800e-12, 3.349417280e+03,
                -5.501220480e-01]  ),
       NASA(   [1000.0, 6000.0], [2.864728860e+00, 1.056504480e-03,
                -2.590827580e-07, 3.052186740e-11,
                -1.331958760e-15, 3.683947610e+03,
                5.701857710e+00]  )
                ),
    transport = gas_transport(
                geom = "linear",
                diam = 2.7500000000000004, 
                well_depth = 80.0, 
                polar = 0.0, 
                rot_relax = 0.0)
       )

species(name = "H2",
    atoms = "H:2", 
    thermo = (
       NASA(   [300.0, 1000.0], [3.298113150e+00, 8.250271390e-04,
                -8.145206790e-07,
                -9.451560240e-11, 4.133962800e-13,
                -1.012519940e+03,
                -3.294049080e+00]  ),
       NASA(   [1000.0, 5000.0], [2.991423000e+00, 7.000644000e-04,
                -5.633829000e-08,
                -9.231578000e-12, 1.582752000e-15,
                -8.350341900e+02,
                -1.355111680e+00]  )
                ),
    transport = gas_transport(
                geom = "linear",
                diam = 2.9200000000000004, 
                well_depth = 38.0, 
                polar = 0.7900000000000001, 
                rot_relax = 280.0)
       )

species(name = "H2O",
    atoms = "H:2, O:1", 
    thermo = (
       NASA(   [300.0, 1000.0], [3.386833690e+00, 3.475046640e-03,
                -6.354871100e-06, 6.968778130e-09,
                -2.506666370e-12,
                -3.020810920e+04, 2.590267290e+00]  ),
       NASA(   [1000.0, 5000.0], [2.672146000e+00, 3.056293000e-03,
                -8.730260000e-07, 1.200996000e-10,
                -6.391618000e-15,
                -2.989921170e+04, 6.862810170e+00]  )
                ),
    transport = gas_transport(
                geom = "nonlinear",
                diam = 2.6050000000000004, 
                well_depth = 572.4, 
                polar = 0.0, 
                rot_relax = 4.0, 
                dipole= 1.8440005262719967)
       )

species(name = "HO2",
    atoms = "H:1, O:2", 
    thermo = (
       NASA(   [200.0, 1000.0], [3.929600490e+00, -1.608302090e-03,
                1.187276700e-05, -1.300379560e-08,
                4.536558590e-12, 3.281846070e+02,
                5.223376620e+00]  ),
       NASA(   [1000.0, 3500.0], [4.017210900e+00, 2.239820130e-03,
                -6.336581500e-07, 1.142463700e-10,
                -1.079085350e-14, 1.152808670e+02,
                3.787432420e+00]  )
                ),
    transport = gas_transport(
                geom = "nonlinear",
                diam = 3.458, 
                well_depth = 107.4, 
                polar = 0.0, 
                rot_relax = 1.0)
       )

species(name = "H2O2",
    atoms = "H:2, O:2", 
    thermo = (
       NASA(   [300.0, 1000.0], [3.115323900e+00, 8.694288320e-03,
                -5.900520570e-06, 1.843468990e-09,
                -9.737277880e-14,
                -1.763683220e+04, 7.913250370e+00]  ),
       NASA(   [1000.0, 5000.0], [4.573167000e+00, 4.336136000e-03,
                -1.474689000e-06, 2.348904000e-10,
                -1.431654000e-14,
                -1.800534290e+04, 5.034923080e-01]  )
                ),
    transport = gas_transport(
                geom = "nonlinear",
                diam = 3.458, 
                well_depth = 107.4, 
                polar = 0.0, 
                rot_relax = 3.8)
       )

species(name = "CO",
    atoms = "C:1, O:1", 
    thermo = (
       NASA(   [300.0, 1000.0], [3.262442660e+00, 1.512012920e-03,
                -3.881947100e-06, 5.582156320e-09,
                -2.475033450e-12,
                -1.431053910e+04, 4.848935600e+00]  ),
       NASA(   [1000.0, 5000.0], [3.025078000e+00, 1.442689000e-03,
                -5.630828000e-07, 1.018581000e-10,
                -6.910952000e-15,
                -1.426835050e+04, 6.108219800e+00]  )
                ),
    transport = gas_transport(
                geom = "linear",
                diam = 3.65, 
                well_depth = 98.1, 
                polar = 1.9500000000000002, 
                rot_relax = 1.8)
       )

species(name = "CO2",
    atoms = "C:1, O:2", 
    thermo = (
       NASA(   [300.0, 1000.0], [2.275754270e+00, 9.921851600e-03,
                -1.040854010e-05, 6.866085010e-09,
                -2.117060410e-12,
                -4.837314290e+04, 1.018836850e+01]  ),
       NASA(   [1000.0, 5000.0], [4.453623000e+00, 3.140169000e-03,
                -1.278411000e-06, 2.393997000e-10,
                -1.669033000e-14,
                -4.896694940e+04,
                -9.553950830e-01]  )
                ),
    transport = gas_transport(
                geom = "linear",
                diam = 3.763, 
                well_depth = 244.0, 
                polar = 2.6500000000000004, 
                rot_relax = 2.1)
       )

species(name = "HCO",
    atoms = "C:1, H:1, O:1", 
    thermo = (
       NASA(   [200.0, 1000.0], [4.114916710e+00, -2.347164730e-03,
                1.112875950e-05, -1.009587880e-08,
                2.979851750e-12, 3.849094570e+03,
                3.824566600e+00]  ),
       NASA(   [1000.0, 3500.0], [2.772174380e+00, 4.956955260e-03,
                -2.484456130e-06, 5.891617780e-10,
                -5.335087110e-14, 4.012895830e+03,
                9.799010300e+00]  )
                ),
    transport = gas_transport(
                geom = "nonlinear",
                diam = 3.59, 
                well_depth = 498.0, 
                polar = 0.0, 
                rot_relax = 0.0)
       )

species(name = "T-CH2",
    atoms = "C:1, H:2", 
    thermo = (
       NASA(   [200.0, 1000.0], [3.638661900e+00, 2.015397550e-03,
                -2.990514820e-07,
                -9.486640360e-11, 1.028133050e-13,
                4.601516120e+04, 2.064571280e+00]  ),
       NASA(   [1000.0, 3500.0], [2.874101130e+00, 3.656392920e-03,
                -1.408945970e-06, 2.601795490e-10,
                -1.877275670e-14, 4.626474490e+04,
                6.171969700e+00]  )
                ),
    transport = gas_transport(
                geom = "linear",
                diam = 3.8, 
                well_depth = 144.0, 
                polar = 0.0, 
                rot_relax = 0.0)
       )

species(name = "CH3",
    atoms = "C:1, H:3", 
    thermo = (
       NASA(   [200.0, 1000.0], [3.449178120e+00, 3.881835620e-03,
                2.692004480e-07, -3.184439530e-10,
                -1.919971560e-13, 1.644136840e+04,
                2.515558560e+00]  ),
       NASA(   [1000.0, 6000.0], [2.978120600e+00, 5.797852000e-03,
                -1.975580000e-06, 3.072979000e-10,
                -1.791741600e-14, 1.651142650e+04,
                4.723781950e+00]  )
                ),
    transport = gas_transport(
                geom = "linear",
                diam = 3.8, 
                well_depth = 144.0, 
                polar = 0.0, 
                rot_relax = 0.0)
       )

species(name = "CH2O",
    atoms = "C:1, H:2, O:1", 
    thermo = (
       NASA(   [200.0, 1000.0], [4.419523530e+00, -6.750620380e-03,
                2.798653060e-05, -2.659529560e-08,
                8.395991150e-12, -1.427540060e+04,
                2.117631900e+00]  ),
       NASA(   [1000.0, 3500.0], [1.760690080e+00, 9.200000820e-03,
                -4.422588130e-06, 1.006412120e-09,
                -8.838556400e-14,
                -1.399238970e+04, 1.365866580e+01]  )
                ),
    transport = gas_transport(
                geom = "nonlinear",
                diam = 3.59, 
                well_depth = 498.0, 
                polar = 0.0, 
                rot_relax = 2.0)
       )

species(name = "CH2CO",
    atoms = "C:2, H:2, O:1", 
    thermo = (
       NASA(   [200.0, 1000.0], [2.026797470e+00, 1.903900500e-02,
                -2.011503050e-05, 1.264639090e-08,
                -3.407802390e-12,
                -7.033140050e+03, 1.265705440e+01]  ),
       NASA(   [1000.0, 3500.0], [4.511297320e+00, 9.003597450e-03,
                -4.169396350e-06, 9.233458820e-10,
                -7.948382010e-14,
                -7.550049970e+03, 6.329299150e-01]  )
                ),
    transport = gas_transport(
                geom = "nonlinear",
                diam = 3.97, 
                well_depth = 436.0, 
                polar = 0.0, 
                rot_relax = 2.0)
       )

species(name = "C2H2",
    atoms = "C:2, H:2", 
    thermo = (
       NASA(   [200.0, 1000.0], [8.693260980e-01, 2.284980530e-02,
                -3.400422050e-05, 2.617851440e-08,
                -7.725848840e-12, 2.642354240e+04,
                1.369420460e+01]  ),
       NASA(   [1000.0, 3500.0], [4.147569640e+00, 5.961666640e-03,
                -2.372948520e-06, 4.674121710e-10,
                -3.612352130e-14, 2.593544130e+04,
                -1.230660850e+00]  )
                ),
    transport = gas_transport(
                geom = "linear",
                diam = 4.1, 
                well_depth = 209.0, 
                polar = 0.0, 
                rot_relax = 2.5)
       )

species(name = "S-CH2",
    atoms = "C:1, H:2", 
    thermo = (
       NASA(   [200.0, 1000.0], [4.164888310e+00, -2.082100700e-03,
                7.391825950e-06, -5.667023190e-09,
                1.512349310e-12, 5.049983970e+04,
                -6.326320780e-01]  ),
       NASA(   [1000.0, 3500.0], [2.292038420e+00, 4.655886370e-03,
                -2.011919470e-06, 4.179060000e-10,
                -3.397163650e-14, 5.092630980e+04,
                8.626712760e+00]  )
                ),
    transport = gas_transport(
                geom = "linear",
                diam = 3.8, 
                well_depth = 144.0, 
                polar = 0.0, 
                rot_relax = 0.0)
       )

species(name = "CH3OH",
    atoms = "C:1, H:4, O:1", 
    thermo = (
       NASA(   [200.0, 1000.0], [4.827329500e+00, -7.736894730e-03,
                4.308878550e-05, -4.418419150e-08,
                1.478815060e-11, -2.556312880e+04,
                2.090934140e+00]  ),
       NASA(   [1000.0, 3500.0], [1.789707910e+00, 1.409382920e-02,
                -6.365008350e-06, 1.381710850e-09,
                -1.170602200e-13,
                -2.536670470e+04, 1.450792230e+01]  )
                ),
    transport = gas_transport(
                geom = "nonlinear",
                diam = 3.6260000000000003, 
                well_depth = 481.8, 
                polar = 0.0, 
                rot_relax = 1.0)
       )

species(name = "CH2OH",
    atoms = "C:1, H:3, O:1", 
    thermo = (
       NASA(   [200.0, 1000.0], [3.667471430e+00, 7.254209910e-03,
                1.032520210e-06, -4.504376960e-09,
                1.859977080e-12, -3.176300040e+03,
                6.268152420e+00]  ),
       NASA(   [1000.0, 3500.0], [3.692665690e+00, 8.645767970e-03,
                -3.751011200e-06, 7.872346360e-10,
                -6.485542010e-14,
                -3.240699260e+03, 5.811661870e+00]  )
                ),
    transport = gas_transport(
                geom = "nonlinear",
                diam = 3.6900000000000004, 
                well_depth = 417.0, 
                polar = 0.0, 
                rot_relax = 2.0, 
                dipole= 1.7000004851748343)
       )

species(name = "CH3O",
    atoms = "C:1, H:3, O:1", 
    thermo = (
       NASA(   [300.0, 1000.0], [1.656925480e+00, 1.070835960e-02,
                -4.112993030e-06, 3.252567320e-09,
                -2.145630470e-12, 1.021844200e+03,
                1.500542800e+01]  ),
       NASA(   [1000.0, 3000.0], [3.770799000e+00, 7.871497000e-03,
                -2.656384000e-06, 3.944431000e-10,
                -2.112616000e-14, 1.304958550e+02,
                2.933447190e+00]  )
                ),
    transport = gas_transport(
                geom = "nonlinear",
                diam = 3.6900000000000004, 
                well_depth = 417.0, 
                polar = 0.0, 
                rot_relax = 2.0, 
                dipole= 1.7000004851748343)
       )

species(name = "CH4",
    atoms = "C:1, H:4", 
    thermo = (
       NASA(   [200.0, 1000.0], [4.493287770e+00, -8.127953290e-03,
                3.278393110e-05, -2.856191630e-08,
                8.280623970e-12, -1.018778750e+04,
                -1.983597780e+00]  ),
       NASA(   [1000.0, 6000.0], [1.653262260e+00, 1.002630990e-02,
                -3.316612380e-06, 5.364831380e-10,
                -3.146967580e-14,
                -1.000356020e+04, 9.909168900e+00]  )
                ),
    transport = gas_transport(
                geom = "nonlinear",
                diam = 3.7460000000000004, 
                well_depth = 141.4, 
                polar = 2.6, 
                rot_relax = 13.0)
       )

species(name = "CH3O2",
    atoms = "C:1, H:3, O:2", 
    thermo = (
       NASA(   [200.0, 1000.0], [3.587482450e+00, 6.434056260e-03,
                1.603850650e-05, -2.098376600e-08,
                7.101117720e-12, -3.767204830e+02,
                9.531686700e+00]  ),
       NASA(   [1000.0, 6000.0], [5.925058190e+00, 9.001945420e-03,
                -3.242543090e-06, 5.243627180e-10,
                -3.142630030e-14,
                -1.521747650e+03,
                -4.929319040e+00]  )
                ),
    transport = gas_transport(
                geom = "nonlinear",
                diam = 3.6260000000000003, 
                well_depth = 481.8, 
                polar = 0.0, 
                rot_relax = 1.0)
       )

species(name = "C2H3",
    atoms = "C:2, H:3", 
    thermo = (
       NASA(   [200.0, 1000.0], [2.484007710e+00, 7.661948580e-03,
                7.747474100e-06, -1.370325530e-08,
                5.407326790e-12, 3.492517090e+04,
                1.145945600e+01]  ),
       NASA(   [1000.0, 3500.0], [3.016724000e+00, 1.033022920e-02,
                -4.680823490e-06, 1.017632880e-09,
                -8.626070410e-14, 3.461957560e+04,
                7.791884550e+00]  )
                ),
    transport = gas_transport(
                geom = "nonlinear",
                diam = 4.1, 
                well_depth = 209.0, 
                polar = 0.0, 
                rot_relax = 1.0)
       )

species(name = "C2H4",
    atoms = "C:2, H:4", 
    thermo = (
       NASA(   [200.0, 1000.0], [2.806693150e+00, 2.155010660e-03,
                2.834644390e-05, -3.425333150e-08,
                1.226245410e-11, 5.193126360e+03,
                8.762866250e+00]  ),
       NASA(   [1000.0, 3500.0], [2.036111160e+00, 1.464541510e-02,
                -6.710779150e-06, 1.472229230e-09,
                -1.257060610e-13, 4.950488990e+03,
                1.031258490e+01]  )
                ),
    transport = gas_transport(
                geom = "nonlinear",
                diam = 3.971, 
                well_depth = 280.8, 
                polar = 0.0, 
                rot_relax = 1.5)
       )

species(name = "C2H5",
    atoms = "C:2, H:5", 
    thermo = (
       NASA(   [200.0, 1000.0], [3.359300320e+00, 3.806141330e-03,
                2.608455690e-05, -3.122625320e-08,
                1.094865200e-11, 1.292656290e+04,
                8.541483820e+00]  ),
       NASA(   [1000.0, 3500.0], [1.954656420e+00, 1.739727220e-02,
                -7.982066680e-06, 1.752176890e-09,
                -1.496415760e-13, 1.286623380e+04,
                1.346836440e+01]  )
                ),
    transport = gas_transport(
                geom = "nonlinear",
                diam = 4.302, 
                well_depth = 252.3, 
                polar = 0.0, 
                rot_relax = 1.5)
       )

species(name = "CH2CHO",
    atoms = "C:2, H:3, O:1", 
    thermo = (
       NASA(   [300.0, 1000.0], [1.096857930e+00, 2.202287510e-02,
                -1.445833260e-05, 3.007783240e-09,
                6.089975090e-13, 1.069433160e+03,
                1.900947880e+01]  ),
       NASA(   [1000.0, 3000.0], [2.426063570e+00, 1.724000210e-02,
                -9.771321190e-06, 2.665556720e-09,
                -2.821200780e-13, 8.331070080e+02,
                1.260387370e+01]  )
                ),
    transport = gas_transport(
                geom = "nonlinear",
                diam = 3.97, 
                well_depth = 436.0, 
                polar = 0.0, 
                rot_relax = 2.0)
       )

species(name = "CH3CHO",
    atoms = "C:2, H:4, O:1", 
    thermo = (
       NASA(   [300.0, 1000.0], [1.406538390e+00, 2.169844510e-02,
                -1.475732990e-05, 7.304358420e-09,
                -2.091196040e-12,
                -2.179732230e+04, 1.775132720e+01]  ),
       NASA(   [1000.0, 3000.0], [2.685431120e+00, 1.768023730e-02,
                -8.654027390e-06, 2.036805890e-09,
                -1.876309350e-13,
                -2.216537020e+04, 1.116356530e+01]  )
                ),
    transport = gas_transport(
                geom = "nonlinear",
                diam = 3.97, 
                well_depth = 436.0, 
                polar = 0.0, 
                rot_relax = 2.0)
       )

species(name = "C2H5O",
    atoms = "C:2, H:5, O:1", 
    thermo = (
       NASA(   [300.0, 1000.0], [4.944210240e-01, 2.717744100e-02,
                -1.659089480e-05, 5.152035350e-09,
                -6.484944530e-13,
                -3.352529280e+03, 2.280793650e+01]  ),
       NASA(   [1000.0, 5000.0], [2.462623490e+00, 2.095039590e-02,
                -9.392917500e-06, 1.564406270e-09,
                0.000000000e+00, -3.839326570e+03,
                1.287388470e+01]  )
                ),
    transport = gas_transport(
                geom = "nonlinear",
                diam = 4.41, 
                well_depth = 470.6, 
                polar = 0.0, 
                rot_relax = 1.5)
       )

species(name = "N-C3H7",
    atoms = "C:3, H:7", 
    thermo = (
       NASA(   [298.15, 1000.0], [-9.540446320e-01, 4.156407110e-02,
                -3.975142260e-05, 2.776694310e-08,
                -9.438372560e-12, 1.082529020e+04,
                2.939833770e+01]  ),
       NASA(   [1000.0, 5000.0], [7.704040500e+00, 1.604154000e-02,
                -5.281596700e-06, 7.625440300e-10,
                -3.935346200e-14, 8.309824560e+03,
                -1.547026580e+01]  )
                ),
    transport = gas_transport(
                geom = "nonlinear",
                diam = 4.982, 
                well_depth = 266.8, 
                polar = 0.0, 
                rot_relax = 1.0)
       )

species(name = "C2H6",
    atoms = "C:2, H:6", 
    thermo = (
       NASA(   [200.0, 1000.0], [3.234310280e+00, 3.419003270e-03,
                3.357110880e-05, -3.883023280e-08,
                1.336147010e-11, -1.142740940e+04,
                6.946189740e+00]  ),
       NASA(   [1000.0, 3500.0], [1.071881500e+00, 2.168526770e-02,
                -1.002560670e-05, 2.214120010e-09,
                -1.900028900e-13,
                -1.141666800e+04, 1.512222920e+01]  )
                ),
    transport = gas_transport(
                geom = "nonlinear",
                diam = 4.302, 
                well_depth = 252.3, 
                polar = 0.0, 
                rot_relax = 1.5)
       )

species(name = "C3H6",
    atoms = "C:3, H:6", 
    thermo = (
       NASA(   [300.0, 1000.0], [-2.292585730e-03, 3.102610630e-02,
                -1.671515420e-05, 1.895941020e-09,
                1.249579410e-12, 1.134374060e+03,
                2.357196000e+01]  ),
       NASA(   [1000.0, 3000.0], [4.716979820e-01, 2.895130700e-02,
                -1.566018190e-05, 4.114431990e-09,
                -4.230751410e-13, 1.126033860e+03,
                2.152372890e+01]  )
                ),
    transport = gas_transport(
                geom = "nonlinear",
                diam = 4.982, 
                well_depth = 266.8, 
                polar = 0.0, 
                rot_relax = 1.0)
       )

species(name = "C3H3",
    atoms = "C:3, H:3", 
    thermo = (
       NASA(   [300.0, 1000.0], [1.402992720e+00, 3.017733020e-02,
                -3.984493080e-05, 2.935345600e-08,
                -8.705543280e-12, 3.931082200e+04,
                1.515278310e+01]  ),
       NASA(   [1000.0, 3000.0], [6.149152910e+00, 9.340631660e-03,
                -3.750553540e-06, 6.901563160e-10,
                -4.608249940e-14, 3.838548470e+04,
                -7.453452100e+00]  )
                ),
    transport = gas_transport(
                geom = "nonlinear",
                diam = 4.76, 
                well_depth = 252.00000000000003, 
                polar = 0.0, 
                rot_relax = 1.0)
       )

species(name = "A-C3H4",
    atoms = "C:3, H:4", 
    thermo = (
       NASA(   [300.0, 1000.0], [3.689280500e-01, 2.893514130e-02,
                -2.443864500e-05, 1.125472100e-08,
                -2.030404240e-12, 2.175852560e+04,
                1.952672200e+01]  ),
       NASA(   [1000.0, 3000.0], [2.561287570e+00, 1.950801280e-02,
                -1.040613660e-05, 2.701651730e-09,
                -2.750743290e-13, 2.138942890e+04,
                9.205503890e+00]  )
                ),
    transport = gas_transport(
                geom = "nonlinear",
                diam = 4.76, 
                well_depth = 252.00000000000003, 
                polar = 0.0, 
                rot_relax = 1.0)
       )

species(name = "S-C3H5",
    atoms = "C:3, H:5", 
    thermo = (
       NASA(   [300.0, 1000.0], [3.131060260e-01, 3.187697050e-02,
                -2.534201230e-05, 1.029991910e-08,
                -1.353022910e-12, 3.137676840e+04,
                2.237288550e+01]  ),
       NASA(   [1000.0, 3000.0], [2.025093600e+00, 2.355132490e-02,
                -1.282545560e-05, 3.395792220e-09,
                -3.517947240e-13, 3.118120410e+04,
                1.466533010e+01]  )
                ),
    transport = gas_transport(
                geom = "nonlinear",
                diam = 4.982, 
                well_depth = 266.8, 
                polar = 0.0, 
                rot_relax = 1.0)
       )

species(name = "C2H3CHO",
    atoms = "C:3, H:4, O:1", 
    thermo = (
       NASA(   [300.0, 1000.0], [2.923550880e-01, 3.543214230e-02,
                -2.949363380e-05, 1.281001390e-08,
                -2.261441650e-12,
                -1.165215840e+04, 2.288782830e+01]  ),
       NASA(   [1000.0, 5000.0], [5.561545920e+00, 1.792958370e-02,
                -8.034647580e-06, 1.322953750e-09,
                0.000000000e+00, -1.290358870e+04,
                -3.473727400e+00]  )
                ),
    transport = gas_transport(
                geom = "nonlinear",
                diam = 4.958000000000001, 
                well_depth = 428.8, 
                polar = 0.0, 
                rot_relax = 1.0, 
                dipole= 2.900000827651188)
       )

species(name = "A-C3H5",
    atoms = "C:3, H:5", 
    thermo = (
       NASA(   [300.0, 1000.0], [-1.035164490e+00, 3.750433700e-02,
                -3.263812520e-05, 1.476626250e-08,
                -2.437412000e-12, 1.887922540e+04,
                2.714510730e+01]  ),
       NASA(   [1000.0, 3000.0], [2.287949270e+00, 2.364015750e-02,
                -1.278914500e-05, 3.368385400e-09,
                -3.474494490e-13, 1.830335140e+04,
                1.140634180e+01]  )
                ),
    transport = gas_transport(
                geom = "nonlinear",
                diam = 4.982, 
                well_depth = 266.8, 
                polar = 0.0, 
                rot_relax = 1.0)
       )

species(name = "C3H5O",
    atoms = "C:3, H:5, O:1", 
    thermo = (
       NASA(   [300.0, 1000.0], [1.198225270e+00, 3.055798780e-02,
                -1.806303830e-05, 4.861511720e-09,
                -4.198587540e-13, 9.582177890e+03,
                2.155662440e+01]  ),
       NASA(   [1000.0, 5000.0], [3.390745770e+00, 2.413016200e-02,
                -1.136508940e-05, 1.979009380e-09,
                0.000000000e+00, 9.007574510e+03,
                1.034595010e+01]  )
                ),
    transport = gas_transport(